running/2014-05-27 16_57_32.566000/main.glm
clock {
	timezone PST+8PDT;
	starttime '2000-01-01 00:00:00';
	stoptime '2000-01-01 00:00:00';
};

#set minimum_timestep=60;
#set profiler=1;
#set relax_naming_rules=1;
module generators;
module tape;
module residential {
	implicit_enduses NONE;
};

module powerflow {
	solver_method NR;
	NR_iteration_limit 50;
};

object node {
	phases ABCN;
	name BURLINGTON;
	bustype SWING;
	longitude 0;
	nominal_voltage 7200.0;
	latitude 0;
};

object overhead_line {
	phases ACB;
	from BURLINGTON;
	name 21003;
	longitude 0;
	to node2101121003;
	length 20.6237;
	latitude 0;
	configuration 20531-LINECONFIG;
};

object overhead_line {
	phases ACB;
	from node2101121003;
	name 21011;
	longitude 0;
	to node6830421011;
	length 13.0755;
	latitude 0;
	configuration 20531-LINECONFIG;
};

object overhead_line {
	phases ACB;
	from node6830421011;
	name 68304;
	longitude 0;
	to node6830568304;
	length 14.8233;
	latitude 0;
	configuration 20531-LINECONFIG;
};

object overhead_line {
	phases ACB;
	from node6830421011;
	name 68302;
	longitude 0;
	to node6830368302;
	length 10;
	latitude 0;
	configuration 20531-LINECONFIG;
};

object overhead_line {
	phases ACB;
	from node6830421011;
	name 68300;
	longitude 0;
	to node6830168300;
	length 10;
	latitude 0;
	configuration 20531-LINECONFIG;
};

object overhead_line {
	phases ACB;
	from node6830421011;
	name 68298;
	longitude 0;
	to node6829968298;
	length 19.0913;
	latitude 0;
	configuration 20531-LINECONFIG;
};

object overhead_line {
	phases ACB;
	from node6829968298;
	name 68299;
	longitude 0;
	to nodeR118268299;
	length 24.3563;
	latitude 0;
	configuration 20531-LINECONFIG;
};

object fuse {
	phases ACB;
	from nodeR118268299;
	name R1182;
	current_limit 9999.0 A;
	longitude 0;
	to node20944R1182;
	latitude 0;
};

object overhead_line {
	phases ACB;
	from node20944R1182;
	name 20944;
	to node2083720944;
	longitude 0;
	length 82.2659;
	latitude 0;
	configuration 20531-LINECONFIG;
};

object overhead_line {
	phases ACB;
	from node2083720944;
	name 20837;
	longitude 0;
	to node2088120837;
	length 87.5465;
	latitude 0;
	configuration 20531-LINECONFIG;
};

object overhead_line {
	phases ACB;
	from node2088120837;
	name 20881;
	longitude 0;
	to node2044520881;
	length 281.156;
	latitude 0;
	configuration 20531-LINECONFIG;
};

object overhead_line {
	phases ACB;
	from node2044520881;
	name 20445;
	longitude 0;
	to node2054920445;
	length 465.786;
	latitude 0;
	configuration 20531-LINECONFIG;
};

object overhead_line {
	phases ACB;
	from node2054920445;
	name 20549;
	longitude 0;
	to node2036920549;
	length 212.612;
	latitude 0;
	configuration 20531-LINECONFIG;
};

object overhead_line {
	phases ACB;
	from node2036920549;
	name 20369;
	longitude 0;
	to node2050620369;
	length 302.735;
	latitude 0;
	configuration 20531-LINECONFIG;
};

object overhead_line {
	phases ACB;
	from node2050620369;
	name 20506;
	longitude 0;
	to node2036720506;
	length 178.526;
	latitude 0;
	configuration 20531-LINECONFIG;
};

object overhead_line {
	phases ACB;
	from node2036720506;
	name 20367;
	longitude 0;
	to nodeT6246302788020367;
	length 144.103;
	latitude 0;
	configuration 20531-LINECONFIG;
};

object overhead_line {
	phases ACB;
	from nodeT6246302788020367;
	name 20286;
	longitude 0;
	to node2024820286;
	length 266.66;
	latitude 0;
	configuration 20531-LINECONFIG;
};

object overhead_line {
	phases ACB;
	from node2024820286;
	name 20248;
	longitude 0;
	to node2014520248;
	length 153.517;
	latitude 0;
	configuration 20531-LINECONFIG;
};

object overhead_line {
	phases ACB;
	from node2014520248;
	name 20145;
	longitude 0;
	to nodeT6246302460920145;
	length 357.003;
	latitude 0;
	configuration 20531-LINECONFIG;
};

object overhead_line {
	phases A;
	from nodeT6246302460920145;
	name 20129;
	longitude 0;
	to nodeF894420129;
	length 27.7071;
	latitude 0;
	configuration 18949-LINECONFIG;
};

object fuse {
	phases A;
	from nodeF894420129;
	name F8944;
	current_limit 9999.0 A;
	longitude 0;
	to node20130F8944;
	latitude 0;
};

object overhead_line {
	phases A;
	from node20130F8944;
	name 20130;
	to nodeT6246302377520130;
	longitude 0;
	length 103.665;
	latitude 0;
	configuration 18949-LINECONFIG;
};

object overhead_line {
	phases ACB;
	from nodeT6246302460920145;
	name 20050;
	longitude 0;
	to nodeT6246302267620050;
	length 287.2;
	latitude 0;
	configuration 20531-LINECONFIG;
};

object overhead_line {
	phases ACB;
	from nodeT6246302267620050;
	name 19663;
	longitude 0;
	to nodeT6246302166319663;
	length 211.226;
	latitude 0;
	configuration 20531-LINECONFIG;
};

object overhead_line {
	phases ACB;
	from nodeT6246302166319663;
	name 19935;
	longitude 0;
	to nodeT6246302067019935;
	length 194.654;
	latitude 0;
	configuration 20531-LINECONFIG;
};

object overhead_line {
	phases ACB;
	from nodeT6246302067019935;
	name 19597;
	longitude 0;
	to node1985219597;
	length 222.044;
	latitude 0;
	configuration 20531-LINECONFIG;
};

object overhead_line {
	phases ACB;
	from node1985219597;
	name 19852;
	longitude 0;
	to nodeT6246301941419852;
	length 273.49;
	latitude 0;
	configuration 20531-LINECONFIG;
};

object overhead_line {
	phases C;
	from nodeT6246301941419852;
	name 19850;
	longitude 0;
	to nodeF757319850;
	length 26.5061;
	latitude 0;
	configuration 16781-LINECONFIG;
};

object fuse {
	phases C;
	from nodeF757319850;
	name F7573;
	current_limit 9999.0 A;
	longitude 0;
	to node19851F7573;
	latitude 0;
};

object overhead_line {
	phases C;
	from node19851F7573;
	name 19851;
	longitude 0;
	to nodeT6246301946719851;
	length 80.8867;
	latitude 0;
	configuration 16781-LINECONFIG;
};

object overhead_line {
	phases C;
	from nodeT6246301941419852;
	name 19848;
	longitude 0;
	to nodeF794419848;
	length 28.1181;
	latitude 0;
	configuration 16781-LINECONFIG;
};

object fuse {
	phases C;
	from nodeF794419848;
	name F7944;
	current_limit 9999.0 A;
	longitude 0;
	to node19849F7944;
	latitude 0;
};

object overhead_line {
	phases C;
	from node19849F7944;
	name 19849;
	to node1959219849;
	longitude 0;
	length 241.85;
	latitude 0;
	configuration 16781-LINECONFIG;
};

object overhead_line {
	phases C;
	from node1959219849;
	name 19592;
	longitude 0;
	to node1996419592;
	length 320.096;
	latitude 0;
	configuration 16781-LINECONFIG;
};

object overhead_line {
	phases C;
	from node1996419592;
	name 19964;
	longitude 0;
	to nodeT6246302228919964;
	length 319.967;
	latitude 0;
	configuration 16781-LINECONFIG;
};

object overhead_line {
	phases C;
	from nodeT6246302228919964;
	name 20061;
	longitude 0;
	to node2013220061;
	length 203.088;
	latitude 0;
	configuration 16781-LINECONFIG;
};

object overhead_line {
	phases C;
	from node2013220061;
	name 20132;
	longitude 0;
	to nodeT6246302425720132;
	length 158.947;
	latitude 0;
	configuration 16781-LINECONFIG;
};

object overhead_line {
	phases A;
	from nodeT6246301941419852;
	name 19837;
	longitude 0;
	to nodeF758219837;
	length 24.9997;
	latitude 0;
	configuration 18949-LINECONFIG;
};

object fuse {
	phases A;
	from nodeF758219837;
	name F7582;
	current_limit 9999.0 A;
	longitude 0;
	to node19770F7582;
	latitude 0;
};

object overhead_line {
	phases A;
	from node19770F7582;
	name 19770;
	longitude 0;
	to nodeT6246301747919770;
	length 260.872;
	latitude 0;
	configuration 18949-LINECONFIG;
};

object overhead_line {
	phases A;
	from nodeT6246301747919770;
	name 19750;
	longitude 0;
	to nodeT6246301745119750;
	length 174.815;
	latitude 0;
	configuration 18949-LINECONFIG;
};

object overhead_line {
	phases A;
	from nodeT6246301747919770;
	name 19583;
	longitude 0;
	to nodeT6246301555719583;
	length 467.84;
	latitude 0;
	configuration 18949-LINECONFIG;
};

object overhead_line {
	phases A;
	from nodeT6246301555719583;
	name 19342;
	longitude 0;
	to nodeT6246301357619342;
	length 372.94;
	latitude 0;
	configuration 18949-LINECONFIG;
};

object overhead_line {
	phases A;
	from nodeT6246301357619342;
	name 19399;
	longitude 0;
	to nodeT6246301254019399;
	length 288.845;
	latitude 0;
	configuration 18949-LINECONFIG;
};

object overhead_line {
	phases A;
	from nodeT6246301555719583;
	name 19584;
	longitude 0;
	to node1948319584;
	length 235.1;
	latitude 0;
	configuration 18949-LINECONFIG;
};

object overhead_line {
	phases A;
	from node1948319584;
	name 19483;
	longitude 0;
	to nodeT6246301473419483;
	length 316.703;
	latitude 0;
	configuration 18949-LINECONFIG;
};

object overhead_line {
	phases A;
	from nodeT6246301473419483;
	name 19474;
	longitude 0;
	to nodeT6246301373719474;
	length 201.012;
	latitude 0;
	configuration 18949-LINECONFIG;
};

object overhead_line {
	phases A;
	from node1948319584;
	name 18573;
	longitude 0;
	to nodeT6246301683718573;
	length 383.447;
	latitude 0;
	configuration 18949-LINECONFIG;
};

object overhead_line {
	phases A;
	from nodeT6246301683718573;
	name 19688;
	longitude 0;
	to nodeT6247419602319688;
	length 321.462;
	latitude 0;
	configuration 18949-LINECONFIG;
};

object overhead_line {
	phases A;
	from nodeT6247419602319688;
	name 19558;
	longitude 0;
	to nodeT6247419610319558;
	length 211.036;
	latitude 0;
	configuration 18949-LINECONFIG;
};

object overhead_line {
	phases A;
	from nodeT6247419610319558;
	name 19560;
	longitude 0;
	to nodeT6247419621319560;
	length 202.261;
	latitude 0;
	configuration 18949-LINECONFIG;
};

object overhead_line {
	phases A;
	from nodeT6247419621319560;
	name 19683;
	longitude 0;
	to nodeT6247419635319683;
	length 217.697;
	latitude 0;
	configuration 18949-LINECONFIG;
};

object overhead_line {
	phases A;
	from nodeT6247419621319560;
	name 19682;
	longitude 0;
	to nodeT6247419721519682;
	length 198.705;
	latitude 0;
	configuration 18949-LINECONFIG;
};

object overhead_line {
	phases A;
	from nodeT6247419610319558;
	name 19559;
	longitude 0;
	to nodeT6247419710519559;
	length 202.235;
	latitude 0;
	configuration 18949-LINECONFIG;
};

object overhead_line {
	phases A;
	from node1948319584;
	name 18572;
	longitude 0;
	to nodeT6246301663418572;
	length 141.214;
	latitude 0;
	configuration 18949-LINECONFIG;
};

object overhead_line {
	phases ACB;
	from nodeT6246301941419852;
	name 19815;
	longitude 0;
	to nodeT6246301824919815;
	length 335.444;
	latitude 0;
	configuration 20531-LINECONFIG;
};

object overhead_line {
	phases C;
	from nodeT6246301824919815;
	name 19816;
	longitude 0;
	to nodeF581519816;
	length 26.6007;
	latitude 0;
	configuration 16781-LINECONFIG;
};

object fuse {
	phases C;
	from nodeF581519816;
	name F5815;
	current_limit 9999.0 A;
	longitude 0;
	to node19563F5815;
	latitude 0;
};

object overhead_line {
	phases C;
	from node19563F5815;
	name 19563;
	longitude 0;
	to nodeT6246301925319563;
	length 243.066;
	latitude 0;
	configuration 16781-LINECONFIG;
};

object overhead_line {
	phases C;
	from nodeT6246301925319563;
	name 19237;
	longitude 0;
	to nodeT6246302120019237;
	length 305.297;
	latitude 0;
	configuration 16781-LINECONFIG;
};

object overhead_line {
	phases ACB;
	from nodeT6246301824919815;
	name 19765;
	longitude 0;
	to node1974819765;
	length 386.822;
	latitude 0;
	configuration 20531-LINECONFIG;
};

object overhead_line {
	phases ACB;
	from node1974819765;
	name 19748;
	longitude 0;
	to nodeT6246301704519748;
	length 137.975;
	latitude 0;
	configuration 20531-LINECONFIG;
};

object overhead_line {
	phases A;
	from nodeT6246301704519748;
	name 19740;
	longitude 0;
	to nodeF758519740;
	length 25.0001;
	latitude 0;
	configuration 18949-LINECONFIG;
};

object fuse {
	phases A;
	from nodeF758519740;
	name F7585;
	current_limit 9999.0 A;
	longitude 0;
	to node19714F7585;
	latitude 0;
};

object overhead_line {
	phases A;
	from node19714F7585;
	name 19714;
	to nodeT6246301607719714;
	longitude 0;
	length 118.283;
	latitude 0;
	configuration 18949-LINECONFIG;
};

object overhead_line {
	phases A;
	from nodeT6246301607719714;
	name 18588;
	longitude 0;
	to node1950718588;
	length 218.301;
	latitude 0;
	configuration 18949-LINECONFIG;
};

object overhead_line {
	phases A;
	from node1950718588;
	name 19507;
	longitude 0;
	to nodeT6246301405019507;
	length 286.217;
	latitude 0;
	configuration 18949-LINECONFIG;
};

object overhead_line {
	phases A;
	from nodeT6246301704519748;
	name 19561;
	longitude 0;
	to nodeT6246301620119561;
	length 428.982;
	latitude 0;
	configuration 19519-LINECONFIG;
};

object overhead_line {
	phases ACB;
	from nodeT6246301704519748;
	name 19731;
	longitude 0;
	to node5801719731;
	length 155.789;
	latitude 0;
	configuration 20531-LINECONFIG;
};

object underground_line {
	phases ACB;
	from node5801719731;
	name 58017;
	longitude 0;
	to nodeF758658017;
	length 24.9999;
	latitude 0;
	configuration 57825-LINECONFIG;
};

object fuse {
	phases ACB;
	from nodeF758658017;
	name F7586;
	current_limit 9999.0 A;
	longitude 0;
	to node58021F7586;
	latitude 0;
};

object underground_line {
	phases ACB;
	from node58021F7586;
	name 58021;
	longitude 0;
	to nodeT6246307892258021;
	length 201.626;
	latitude 0;
	configuration 57825-LINECONFIG;
};

object overhead_line {
	phases ACB;
	from node5801719731;
	name 19589;
	longitude 0;
	to nodeT6246307689919589;
	length 172.639;
	latitude 0;
	configuration 20531-LINECONFIG;
};

object overhead_line {
	phases ACB;
	from nodeT6246307689919589;
	name 19538;
	longitude 0;
	to nodeT6246307566519538;
	length 561.815;
	latitude 0;
	configuration 20531-LINECONFIG;
};

object overhead_line {
	phases A;
	from nodeT6246307566519538;
	name 19582;
	to nodeF758719582;
	longitude 0;
	length 22.8798;
	latitude 0;
	configuration 19519-LINECONFIG;
};

object fuse {
	phases A;
	from nodeF758719582;
	name F7587;
	current_limit 9999.0 A;
	longitude 0;
	to node19196F7587;
	latitude 0;
};

object overhead_line {
	phases A;
	from node19196F7587;
	name 19196;
	longitude 0;
	to node1951919196;
	length 64.7094;
	latitude 0;
	configuration 19519-LINECONFIG;
};

object line_configuration {
	name 19519-LINECONFIG;
	spacing 16781-LINESPACING;
	conductor_A 16564_conductor_B;
};

object overhead_line {
	phases A;
	from node1951919196;
	name 19519;
	longitude 0;
	to nodeT6246307477519519;
	length 186.866;
	latitude 0;
	configuration 19519-LINECONFIG;
};

object overhead_line {
	phases ACB;
	from nodeT6246307566519538;
	name 19186;
	longitude 0;
	to node1950119186;
	length 169.689;
	latitude 0;
	configuration 20531-LINECONFIG;
};

object overhead_line {
	phases ACB;
	from node1950119186;
	name 19501;
	to node1934519501;
	longitude 0;
	length 293.041;
	latitude 0;
	configuration 20531-LINECONFIG;
};

object overhead_line {
	phases ACB;
	from node1934519501;
	name 19345;
	longitude 0;
	to node1934419345;
	length 421.542;
	latitude 0;
	configuration 20531-LINECONFIG;
};

object overhead_line {
	phases C;
	from node1934419345;
	name 19344;
	longitude 0;
	to nodeF758919344;
	length 25;
	latitude 0;
	configuration 16781-LINECONFIG;
};

object fuse {
	phases C;
	from nodeF758919344;
	name F7589;
	current_limit 9999.0 A;
	longitude 0;
	to node19353F7589;
	latitude 0;
};

object overhead_line {
	phases C;
	from node19353F7589;
	name 19353;
	longitude 0;
	to nodeT6246307416519353;
	length 235.932;
	latitude 0;
	configuration 16781-LINECONFIG;
};

object overhead_line {
	phases C;
	from nodeT6246307416519353;
	name 19512;
	longitude 0;
	to nodeT6246307416119512;
	length 78.2066;
	latitude 0;
	configuration 16781-LINECONFIG;
};

object overhead_line {
	phases C;
	from nodeT6246307416119512;
	name 19511;
	longitude 0;
	to node1920219511;
	length 187.008;
	latitude 0;
	configuration 16781-LINECONFIG;
};

object overhead_line {
	phases C;
	from node1920219511;
	name 19202;
	longitude 0;
	to node1970519202;
	length 268.521;
	latitude 0;
	configuration 16781-LINECONFIG;
};

object overhead_line {
	phases C;
	from node1970519202;
	name 19705;
	longitude 0;
	to node1973319705;
	length 144.519;
	latitude 0;
	configuration 16781-LINECONFIG;
};

object overhead_line {
	phases C;
	from node1973319705;
	name 19733;
	longitude 0;
	to node1979319733;
	length 159.822;
	latitude 0;
	configuration 16781-LINECONFIG;
};

object overhead_line {
	phases C;
	from node1979319733;
	name 19793;
	longitude 0;
	to node1957319793;
	length 192.016;
	latitude 0;
	configuration 16781-LINECONFIG;
};

object overhead_line {
	phases C;
	from node1957319793;
	name 19573;
	to nodeT6246307912719573;
	longitude 0;
	length 242.98;
	latitude 0;
	configuration 16781-LINECONFIG;
};

object overhead_line {
	phases C;
	from node1979319733;
	name 19792;
	longitude 0;
	to nodeT6246313995019792;
	length 336;
	latitude 0;
	configuration 16781-LINECONFIG;
};

object overhead_line {
	phases C;
	from node1920219511;
	name 19198;
	longitude 0;
	to nodeT6246307513319198;
	length 115.812;
	latitude 0;
	configuration 16781-LINECONFIG;
};

object overhead_line {
	phases ACB;
	from node1934419345;
	name 19384;
	longitude 0;
	to nodeT6246307203119384;
	length 546.446;
	latitude 0;
	configuration 20531-LINECONFIG;
};

object overhead_line {
	phases ACB;
	from nodeT6246307203119384;
	name 70924;
	longitude 0;
	to node7092570924;
	length 131.068;
	latitude 0;
	configuration 20531-LINECONFIG;
};

object overhead_line {
	phases ACB;
	from node7092570924;
	name 70925;
	longitude 0;
	to nodeSW1250-Bx170925;
	length 222.516;
	latitude 0;
	configuration 20531-LINECONFIG;
};

object switch {
	status CLOSED;
	phases ACB;
	from nodeSW1250-Bx170925;
	name SW1250-Bx1;
	longitude 0;
	to nodeSW1250-Ax1SW1250-Bx1;
	latitude 0;
};

object switch {
	status CLOSED;
	phases ACB;
	from nodeSW1250-Ax1SW1250-Bx1;
	name SW1250-Ax1;
	longitude 0;
	to node19281SW1250-Ax1;
	latitude 0;
};

object overhead_line {
	phases ACB;
	from node19281SW1250-Ax1;
	name 19281;
	to node1908919281;
	longitude 0;
	length 25.0002;
	latitude 0;
	configuration 20531-LINECONFIG;
};

object overhead_line {
	phases ACB;
	from node1908919281;
	name 19089;
	longitude 0;
	to nodeT6246313079419089;
	length 226.378;
	latitude 0;
	configuration 20531-LINECONFIG;
};

object overhead_line {
	phases ACB;
	from nodeT6246313079419089;
	name 19165;
	longitude 0;
	to node1900919165;
	length 222.764;
	latitude 0;
	configuration 20531-LINECONFIG;
};

object overhead_line {
	phases ACB;
	from node1900919165;
	name 19009;
	longitude 0;
	to node1875419009;
	length 489.892;
	latitude 0;
	configuration 20531-LINECONFIG;
};

object overhead_line {
	phases ACB;
	from node1875419009;
	name 18754;
	longitude 0;
	to node1875318754;
	length 558.193;
	latitude 0;
	configuration 20531-LINECONFIG;
};

object overhead_line {
	phases ACB;
	from node1875318754;
	name 18753;
	longitude 0;
	to node1875218753;
	length 76.3128;
	latitude 0;
	configuration 20531-LINECONFIG;
};

object overhead_line {
	phases ACB;
	from node1875218753;
	name 18752;
	to nodeT6246312914618752;
	longitude 0;
	length 329.719;
	latitude 0;
	configuration 20531-LINECONFIG;
};

object overhead_line {
	phases ACB;
	from nodeT6246312914618752;
	name 19041;
	longitude 0;
	to node1909519041;
	length 311.671;
	latitude 0;
	configuration 20531-LINECONFIG;
};

object overhead_line {
	phases A;
	from node1909519041;
	name 19095;
	longitude 0;
	to nodeF824519095;
	length 29.6986;
	latitude 0;
	configuration 18949-LINECONFIG;
};

object fuse {
	phases A;
	from nodeF824519095;
	name F8245;
	current_limit 9999.0 A;
	longitude 0;
	to node19103F8245;
	latitude 0;
};

object overhead_line {
	phases A;
	from node19103F8245;
	name 19103;
	to nodeT6246313125019103;
	longitude 0;
	length 99.3975;
	latitude 0;
	configuration 18949-LINECONFIG;
};

object overhead_line {
	phases A;
	from nodeT6246313125019103;
	name 19284;
	longitude 0;
	to node1929719284;
	length 278.816;
	latitude 0;
	configuration 18949-LINECONFIG;
};

object overhead_line {
	phases A;
	from node1929719284;
	name 19297;
	longitude 0;
	to node1932919297;
	length 354.071;
	latitude 0;
	configuration 18949-LINECONFIG;
};

object overhead_line {
	phases A;
	from node1932919297;
	name 19329;
	longitude 0;
	to node1934019329;
	length 348.862;
	latitude 0;
	configuration 18949-LINECONFIG;
};

object overhead_line {
	phases A;
	from node1934019329;
	name 19340;
	longitude 0;
	to node1938619340;
	length 238.633;
	latitude 0;
	configuration 18949-LINECONFIG;
};

object overhead_line {
	phases A;
	from node1938619340;
	name 19386;
	longitude 0;
	to nodeT6246313376119386;
	length 333.034;
	latitude 0;
	configuration 18949-LINECONFIG;
};

object overhead_line {
	phases A;
	from nodeT6246313376119386;
	name 19341;
	longitude 0;
	to nodeT6246313468319341;
	length 285.607;
	latitude 0;
	configuration 18949-LINECONFIG;
};

object overhead_line {
	phases A;
	from nodeT6246313468319341;
	name 19521;
	longitude 0;
	to nodeT6246313457819521;
	length 108.49;
	latitude 0;
	configuration 18949-LINECONFIG;
};

object overhead_line {
	phases A;
	from nodeT6246313468319341;
	name 19316;
	to node5796319316;
	longitude 0;
	length 159.789;
	latitude 0;
	configuration 18949-LINECONFIG;
};

object underground_line {
	phases A;
	from node5796319316;
	name 57963;
	longitude 0;
	to nodeT6246313662757963;
	length 215.958;
	latitude 0;
	configuration 58233-LINECONFIG;
};

object overhead_line {
	phases A;
	from node1938619340;
	name 19387;
	longitude 0;
	to nodeT6246313381819387;
	length 222.075;
	latitude 0;
	configuration 18949-LINECONFIG;
};

object overhead_line {
	phases A;
	from node1932919297;
	name 19328;
	longitude 0;
	to nodeT6246313249919328;
	length 252;
	latitude 0;
	configuration 18949-LINECONFIG;
};

object overhead_line {
	phases ACB;
	from node1909519041;
	name 19094;
	longitude 0;
	to nodeT6246313203719094;
	length 351.049;
	latitude 0;
	configuration 20531-LINECONFIG;
};

object overhead_line {
	phases ACB;
	from nodeT6246313203719094;
	name 19393;
	longitude 0;
	to nodeSW1248-A19393;
	length 78.1503;
	latitude 0;
	configuration 20531-LINECONFIG;
};

object overhead_line {
	phases A;
	from node1909519041;
	name 19048;
	longitude 0;
	to nodeF500719048;
	length 29.7713;
	latitude 0;
	configuration 18949-LINECONFIG;
};

object fuse {
	phases A;
	from nodeF500719048;
	name F5007;
	current_limit 9999.0 A;
	longitude 0;
	to node19049F5007;
	latitude 0;
};

object overhead_line {
	phases A;
	from node19049F5007;
	name 19049;
	to node1894919049;
	longitude 0;
	length 486.611;
	latitude 0;
	configuration 18949-LINECONFIG;
};

object line_configuration {
	name 18949-LINECONFIG;
	spacing 16781-LINESPACING;
	conductor_A 16781_conductor_C;
};

object overhead_line {
	phases A;
	from node1894919049;
	name 18949;
	longitude 0;
	to nodeT6246318883218949;
	length 346.911;
	latitude 0;
	configuration 18949-LINECONFIG;
};

object overhead_line {
	phases A;
	from nodeT6246318883218949;
	name 18948;
	longitude 0;
	to nodeT6246318978118948;
	length 375.825;
	latitude 0;
	configuration 19519-LINECONFIG;
};

object overhead_line {
	phases A;
	from nodeT6246318978118948;
	name 19136;
	to nodeT6246319059819136;
	longitude 0;
	length 341.47;
	latitude 0;
	configuration 19519-LINECONFIG;
};

object overhead_line {
	phases A;
	from nodeT6246319059819136;
	name 19096;
	longitude 0;
	to node1855819096;
	length 343.023;
	latitude 0;
	configuration 19519-LINECONFIG;
};

object overhead_line {
	phases A;
	from node1855819096;
	name 18558;
	longitude 0;
	to nodeT6246319350418558;
	length 226.764;
	latitude 0;
	configuration 18949-LINECONFIG;
};

object overhead_line {
	phases A;
	from nodeT6246318883218949;
	name 18907;
	longitude 0;
	to nodeT6246318788818907;
	length 157.693;
	latitude 0;
	configuration 18949-LINECONFIG;
};

object overhead_line {
	phases A;
	from nodeT6246318883218949;
	name 17950;
	longitude 0;
	to node1835917950;
	length 196.101;
	latitude 0;
	configuration 19519-LINECONFIG;
};

object overhead_line {
	phases A;
	from node1835917950;
	name 18359;
	longitude 0;
	to nodeT6246318674218359;
	length 243.492;
	latitude 0;
	configuration 19519-LINECONFIG;
};

object overhead_line {
	phases A;
	from nodeT6246318674218359;
	name 18330;
	longitude 0;
	to node1869618330;
	length 198.508;
	latitude 0;
	configuration 19519-LINECONFIG;
};

object overhead_line {
	phases A;
	from node1869618330;
	name 18696;
	to node1869518696;
	longitude 0;
	length 293.785;
	latitude 0;
	configuration 18949-LINECONFIG;
};

object overhead_line {
	phases A;
	from node1869518696;
	name 18695;
	longitude 0;
	to nodeT6246318545318695;
	length 215.575;
	latitude 0;
	configuration 18949-LINECONFIG;
};

object overhead_line {
	phases A;
	from nodeT6246318545318695;
	name 18790;
	longitude 0;
	to nodeT6246318632418790;
	length 216.201;
	latitude 0;
	configuration 18949-LINECONFIG;
};

object overhead_line {
	phases A;
	from node1869618330;
	name 18329;
	to nodeT6246318657718329;
	longitude 0;
	length 177.49;
	latitude 0;
	configuration 19519-LINECONFIG;
};

object overhead_line {
	phases A;
	from nodeT6246318674218359;
	name 18358;
	longitude 0;
	to node1889318358;
	length 116.619;
	latitude 0;
	configuration 18949-LINECONFIG;
};

object overhead_line {
	phases A;
	from node1889318358;
	name 18893;
	longitude 0;
	to node1891018893;
	length 245.206;
	latitude 0;
	configuration 18949-LINECONFIG;
};

object overhead_line {
	phases A;
	from node1891018893;
	name 18910;
	longitude 0;
	to node1902718910;
	length 361.047;
	latitude 0;
	configuration 18949-LINECONFIG;
};

object overhead_line {
	phases A;
	from node1902718910;
	name 19027;
	longitude 0;
	to nodeT6246318948219027;
	length 204.81;
	latitude 0;
	configuration 18949-LINECONFIG;
};

object overhead_line {
	phases A;
	from node1894919049;
	name 18991;
	longitude 0;
	to nodeT6246318897818991;
	length 150.83;
	latitude 0;
	configuration 18949-LINECONFIG;
};

object overhead_line {
	phases ACB;
	from node1875218753;
	name 18525;
	longitude 0;
	to node1882318525;
	length 361.26;
	latitude 0;
	configuration 20531-LINECONFIG;
};

object overhead_line {
	phases A;
	from node1882318525;
	name 18823;
	longitude 0;
	to nodeF759118823;
	length 25.0002;
	latitude 0;
	configuration 18949-LINECONFIG;
};

object fuse {
	phases A;
	from nodeF759118823;
	name F7591;
	current_limit 9999.0 A;
	longitude 0;
	to node18675F7591;
	latitude 0;
};

object overhead_line {
	phases A;
	from node18675F7591;
	name 18675;
	longitude 0;
	to nodeT6246312515318675;
	length 81.4961;
	latitude 0;
	configuration 18949-LINECONFIG;
};

object overhead_line {
	phases A;
	from nodeT6246312515318675;
	name 18674;
	longitude 0;
	to nodeT6246312408718674;
	length 177.052;
	latitude 0;
	configuration 18949-LINECONFIG;
};

object overhead_line {
	phases ACB;
	from node1882318525;
	name 18630;
	longitude 0;
	to node1788618630;
	length 303.262;
	latitude 0;
	configuration 20531-LINECONFIG;
};

object overhead_line {
	phases ACB;
	from node1788618630;
	name 17886;
	longitude 0;
	to nodeT6246312312617886;
	length 240.007;
	latitude 0;
	configuration 20531-LINECONFIG;
};

object overhead_line {
	phases ACB;
	from nodeT6246312312617886;
	name 17815;
	longitude 0;
	to nodeT6246312119717815;
	length 258.716;
	latitude 0;
	configuration 20531-LINECONFIG;
};

object overhead_line {
	phases ACB;
	from nodeT6246312119717815;
	name 18225;
	longitude 0;
	to node1809818225;
	length 311.169;
	latitude 0;
	configuration 20531-LINECONFIG;
};

object overhead_line {
	phases ACB;
	from node1809818225;
	name 18098;
	longitude 0;
	to node1802518098;
	length 393.013;
	latitude 0;
	configuration 20531-LINECONFIG;
};

object overhead_line {
	phases A;
	from node1802518098;
	name 18025;
	longitude 0;
	to nodeT6246217832118025;
	length 219.619;
	latitude 0;
	configuration 18949-LINECONFIG;
};

object overhead_line {
	phases C;
	from node1802518098;
	name 18094;
	longitude 0;
	to nodeF759818094;
	length 25;
	latitude 0;
	configuration 16781-LINECONFIG;
};

object fuse {
	phases C;
	from nodeF759818094;
	name F7598;
	current_limit 9999.0 A;
	longitude 0;
	to node17654F7598;
	latitude 0;
};

object overhead_line {
	phases C;
	from node17654F7598;
	name 17654;
	longitude 0;
	to nodeT6246223799617654;
	length 467.549;
	latitude 0;
	configuration 16781-LINECONFIG;
};

object overhead_line {
	phases C;
	from nodeT6246223799617654;
	name 17998;
	longitude 0;
	to nodeT6246223796417998;
	length 76.1979;
	latitude 0;
	configuration 16781-LINECONFIG;
};

object overhead_line {
	phases C;
	from nodeT6246223796417998;
	name 17773;
	longitude 0;
	to nodeT6246223698117773;
	length 158.17;
	latitude 0;
	configuration 16781-LINECONFIG;
};

object overhead_line {
	phases ACB;
	from node1802518098;
	name 17756;
	longitude 0;
	to node1753517756;
	length 370.349;
	latitude 0;
	configuration 20531-LINECONFIG;
};

object overhead_line {
	phases ACB;
	from node1753517756;
	name 17535;
	longitude 0;
	to node1655717535;
	length 436.493;
	latitude 0;
	configuration 20531-LINECONFIG;
};

object overhead_line {
	phases ACB;
	from node1655717535;
	name 16557;
	longitude 0;
	to node6806216557;
	length 231.048;
	latitude 0;
	configuration 20531-LINECONFIG;
};

object overhead_line {
	phases ACB;
	from node6806216557;
	name 68062;
	to nodeR120168062;
	longitude 0;
	length 16.7208;
	latitude 0;
	configuration 16564-LINECONFIG;
};

object fuse {
	phases ACB;
	from nodeR120168062;
	name R1201;
	current_limit 9999.0 A;
	longitude 0;
	to node68063R1201;
	latitude 0;
};

object overhead_line {
	phases ACB;
	from node68063R1201;
	name 68063;
	longitude 0;
	to node1656468063;
	length 13.0467;
	latitude 0;
	configuration 16564-LINECONFIG;
};

object line_configuration {
	name 16564-LINECONFIG;
	spacing 20531-LINESPACING;
	conductor_C 16564_conductor_B;
	conductor_B 16564_conductor_B;
	conductor_A 16564_conductor_B;
};

object overhead_line_conductor {
	diameter 0.23;
	name 16564_conductor_B;
	geometric_mean_radius 0.00479;
	resistance 2.44;
};

object overhead_line {
	phases ACB;
	from node1656468063;
	name 16564;
	longitude 0;
	to node1744316564;
	length 198.672;
	latitude 0;
	configuration 16564-LINECONFIG;
};

object overhead_line {
	phases ACB;
	from node1744316564;
	name 17443;
	longitude 0;
	to node1756317443;
	length 333.666;
	latitude 0;
	configuration 16564-LINECONFIG;
};

object overhead_line {
	phases ACB;
	from node1756317443;
	name 17563;
	longitude 0;
	to node1739117563;
	length 425.544;
	latitude 0;
	configuration 16564-LINECONFIG;
};

object overhead_line {
	phases ACB;
	from node1739117563;
	name 17391;
	longitude 0;
	to node1769917391;
	length 380.42;
	latitude 0;
	configuration 16564-LINECONFIG;
};

object overhead_line {
	phases ACB;
	from node1769917391;
	name 17699;
	longitude 0;
	to node1772017699;
	length 366.98;
	latitude 0;
	configuration 16564-LINECONFIG;
};

object overhead_line {
	phases ACB;
	from node1772017699;
	name 17720;
	to node1764317720;
	longitude 0;
	length 397.887;
	latitude 0;
	configuration 16564-LINECONFIG;
};

object overhead_line {
	phases ACB;
	from node1764317720;
	name 17643;
	longitude 0;
	to node1778317643;
	length 514.255;
	latitude 0;
	configuration 16564-LINECONFIG;
};

object overhead_line {
	phases ACB;
	from node1778317643;
	name 17783;
	longitude 0;
	to node1817717783;
	length 338.245;
	latitude 0;
	configuration 16564-LINECONFIG;
};

object overhead_line {
	phases ACB;
	from node1817717783;
	name 18177;
	longitude 0;
	to node1820618177;
	length 479.758;
	latitude 0;
	configuration 16564-LINECONFIG;
};

object overhead_line {
	phases ACB;
	from node1820618177;
	name 18206;
	longitude 0;
	to node1790318206;
	length 428.894;
	latitude 0;
	configuration 16564-LINECONFIG;
};

object overhead_line {
	phases ACB;
	from node1790318206;
	name 17903;
	longitude 0;
	to node1826517903;
	length 501.183;
	latitude 0;
	configuration 16564-LINECONFIG;
};

object overhead_line {
	phases ACB;
	from node1826517903;
	name 18265;
	longitude 0;
	to node5785418265;
	length 201.729;
	latitude 0;
	configuration 17361-LINECONFIG;
};

object underground_line {
	phases ACB;
	from node5785418265;
	name 57854;
	longitude 0;
	to nodeF518757854;
	length 28.5185;
	latitude 0;
	configuration 57825-LINECONFIG;
};

object fuse {
	phases ACB;
	from nodeF518757854;
	name F5187;
	current_limit 9999.0 A;
	longitude 0;
	to node57850F5187;
	latitude 0;
};

object underground_line {
	phases ACB;
	from node57850F5187;
	name 57850;
	longitude 0;
	to node5783757850;
	length 110.07;
	latitude 0;
	configuration 57825-LINECONFIG;
};

object underground_line {
	phases ACB;
	from node5783757850;
	name 57837;
	longitude 0;
	to nodeT6246300040057837;
	length 158.171;
	latitude 0;
	configuration 57825-LINECONFIG;
};

object underground_line {
	phases A;
	from nodeT6246300040057837;
	name 57838;
	longitude 0;
	to nodeT6246300051157838;
	length 212.725;
	latitude 0;
	configuration 58233-LINECONFIG;
};

object underground_line {
	phases A;
	from nodeT6246300051157838;
	name 57836;
	longitude 0;
	to nodeT6246300061057836;
	length 205.18;
	latitude 0;
	configuration 58233-LINECONFIG;
};

object underground_line {
	phases A;
	from nodeT6246300061057836;
	name 57843;
	longitude 0;
	to nodeT6246300068857843;
	length 214.739;
	latitude 0;
	configuration 58233-LINECONFIG;
};

object underground_line {
	phases A;
	from nodeT6246300068857843;
	name 57835;
	longitude 0;
	to nodeT6246205978757835;
	length 305.264;
	latitude 0;
	configuration 58233-LINECONFIG;
};

object underground_line {
	phases ACB;
	from nodeT6246300040057837;
	name 57833;
	longitude 0;
	to nodeT6246205849157833;
	length 217.404;
	latitude 0;
	configuration 57825-LINECONFIG;
};

object underground_line {
	phases ACB;
	from nodeT6246205849157833;
	name 57794;
	to node5779557794;
	longitude 0;
	length 265.389;
	latitude 0;
	configuration 57825-LINECONFIG;
};

object underground_line {
	phases B;
	from node5779557794;
	name 57790;
	longitude 0;
	to nodeT6246205736757790;
	length 83.1156;
	latitude 0;
	configuration 58119-LINECONFIG;
};

object underground_line {
	phases ACB;
	from node5783757850;
	name 57851;
	longitude 0;
	to nodeF716757851;
	length 652.912;
	latitude 0;
	configuration 57825-LINECONFIG;
};

object fuse {
	phases ACB;
	from nodeF716757851;
	name F7167;
	current_limit 9999.0 A;
	longitude 0;
	to node57808F7167;
	latitude 0;
};

object underground_line {
	phases ACB;
	from node57808F7167;
	name 57808;
	longitude 0;
	to node5785657808;
	length 29.5374;
	latitude 0;
	configuration 57825-LINECONFIG;
};

object underground_line {
	phases ACB;
	from node5785657808;
	name 57856;
	longitude 0;
	to nodeSW1064-Bx157856;
	length 29.9672;
	latitude 0;
	configuration 57809-LINECONFIG;
};

object switch {
	status CLOSED;
	phases ACB;
	from nodeSW1064-Bx157856;
	name SW1064-Bx1;
	longitude 0;
	to nodeSW1064-Ax1SW1064-Bx1;
	latitude 0;
};

object switch {
	status CLOSED;
	phases ACB;
	from nodeSW1064-Ax1SW1064-Bx1;
	name SW1064-Ax1;
	longitude 0;
	to node57855SW1064-Ax1;
	latitude 0;
};

object underground_line {
	phases ACB;
	from node5785657808;
	name 57810;
	longitude 0;
	to nodeF617157810;
	length 28.999;
	latitude 0;
	configuration 57825-LINECONFIG;
};

object fuse {
	phases ACB;
	from nodeF617157810;
	name F6171;
	current_limit 9999.0 A;
	longitude 0;
	to node57811F6171;
	latitude 0;
};

object underground_line {
	phases ACB;
	from node57811F6171;
	name 57811;
	longitude 0;
	to node5781957811;
	length 486.139;
	latitude 0;
	configuration 57825-LINECONFIG;
};

object underground_line {
	phases ACB;
	from node5781957811;
	name 57819;
	longitude 0;
	to node5788057819;
	length 91.9686;
	latitude 0;
	configuration 57825-LINECONFIG;
};

object underground_line {
	phases ACB;
	from node5788057819;
	name 57880;
	longitude 0;
	to nodeT6246300294857880;
	length 140;
	latitude 0;
	configuration 57825-LINECONFIG;
};

object underground_line {
	phases ACB;
	from nodeT6246300294857880;
	name 57857;
	longitude 0;
	to nodeT6247418103657857;
	length 280.001;
	latitude 0;
	configuration 57825-LINECONFIG;
};

object underground_line {
	phases C;
	from nodeT6247418103657857;
	name 57849;
	longitude 0;
	to nodeT6246300097957849;
	length 189.809;
	latitude 0;
	configuration 57821-LINECONFIG;
};

object underground_line {
	phases C;
	from nodeT6246300097957849;
	name 57844;
	longitude 0;
	to nodeT6246300082957844;
	length 236.79;
	latitude 0;
	configuration 57821-LINECONFIG;
};

object underground_line {
	phases C;
	from nodeT6246300082957844;
	name 57846;
	longitude 0;
	to node7210857846;
	length 75.43;
	latitude 0;
	configuration 57821-LINECONFIG;
};

object underground_line {
	phases C;
	from node7210857846;
	name 72108;
	longitude 0;
	to nodeT6246300181472108;
	length 137.48;
	latitude 0;
	configuration 57821-LINECONFIG;
};

object line_configuration {
	name 57821-LINECONFIG;
	spacing 58233-LINESPACING;
	conductor_C 57825-LINECONFIGunderground_line_conductor40905;
};

object underground_line {
	phases C;
	from nodeT6246300181472108;
	name 57821;
	longitude 0;
	to nodeT6246300176957821;
	length 133.57;
	latitude 0;
	configuration 57821-LINECONFIG;
};

object underground_line {
	phases ACB;
	from nodeT6247418103657857;
	name 57845;
	longitude 0;
	to nodeT6247418012257845;
	length 258.114;
	latitude 0;
	configuration 57825-LINECONFIG;
};

object line_configuration {
	name 57825-LINECONFIG;
	spacing 57825-LINESPACING;
	conductor_A 57825-LINECONFIGunderground_line_conductor40905;
	conductor_C 57825-LINECONFIGunderground_line_conductor40905;
	conductor_B 57825-LINECONFIGunderground_line_conductor40905;
};

object line_spacing {
	distance_AN 0.0;
	name 57825-LINESPACING;
	distance_CN 0.0;
	distance_BC 4.472136;
	distance_AB 4.472136;
	distance_AC 8.000000;
	distance_BN 0.0;
};

object underground_line_conductor {
	conductor_gmr 0.01177;
	conductor_resistance 1.1088;
	shield_resistance 0.000000;
	neutral_gmr 0.0317574;
	neutral_strands 19;
	conductor_diameter 0.373000;
	name 57825-LINECONFIGunderground_line_conductor40905;
	insulation_relative_permitivitty 2.4;
	outer_diameter 0.983000;
	neutral_resistance 1.11408;
	neutral_diameter 0.128000;
	shield_gmr 0.000000;
};

object underground_line {
	phases ACB;
	from nodeT6247418012257845;
	name 57825;
	longitude 0;
	to node5780657825;
	length 126.182;
	latitude 0;
	configuration 57825-LINECONFIG;
};

object underground_line {
	phases ACB;
	from node5780657825;
	name 57806;
	longitude 0;
	to nodeT6247323807357806;
	length 230.013;
	latitude 0;
	configuration 57825-LINECONFIG;
};

object underground_line {
	phases B;
	from nodeT6247323807357806;
	name 57824;
	longitude 0;
	to nodeT6247323812657824;
	length 353.102;
	latitude 0;
	configuration 58119-LINECONFIG;
};

object underground_line {
	phases B;
	from nodeT6247323812657824;
	name 57823;
	longitude 0;
	to node7252257823;
	length 98.1972;
	latitude 0;
	configuration 58119-LINECONFIG;
};

object underground_line {
	phases B;
	from node7252257823;
	name 72522;
	longitude 0;
	to nodeT6247323828372522;
	length 143.061;
	latitude 0;
	configuration 58119-LINECONFIG;
};

object underground_line {
	phases ACB;
	from nodeT6247323807357806;
	name 57827;
	longitude 0;
	to nodeT6246205896157827;
	length 244.614;
	latitude 0;
	configuration 57825-LINECONFIG;
};

object underground_line {
	phases ACB;
	from nodeT6246205896157827;
	name 57830;
	longitude 0;
	to node5782957830;
	length 174.374;
	latitude 0;
	configuration 57825-LINECONFIG;
};

object underground_line {
	phases ACB;
	from node5782957830;
	name 57829;
	longitude 0;
	to nodeT6246205876457829;
	length 186.186;
	latitude 0;
	configuration 57825-LINECONFIG;
};

object underground_line {
	phases ACB;
	from nodeT6246205876457829;
	name 57803;
	longitude 0;
	to nodeT6246205769557803;
	length 218.151;
	latitude 0;
	configuration 57825-LINECONFIG;
};

object underground_line {
	phases ACB;
	from nodeT6246205769557803;
	name 57801;
	longitude 0;
	to nodeT6246205758557801;
	length 199.729;
	latitude 0;
	configuration 57825-LINECONFIG;
};

object underground_line {
	phases ACB;
	from nodeT6246205758557801;
	name 57800;
	to nodeT6246205747857800;
	longitude 0;
	length 140.001;
	latitude 0;
	configuration 57825-LINECONFIG;
};

object line_configuration {
	name 57809-LINECONFIG;
	spacing 57825-LINESPACING;
	conductor_A 57809-LINECONFIGunderground_line_conductor45004;
	conductor_C 57809-LINECONFIGunderground_line_conductor45004;
	conductor_B 57809-LINECONFIGunderground_line_conductor45004;
};

object underground_line_conductor {
	conductor_gmr 0.02603;
	conductor_resistance 0.23232;
	shield_resistance 0.000000;
	neutral_gmr 0.0317574;
	neutral_strands 37;
	conductor_diameter 0.813000;
	name 57809-LINECONFIGunderground_line_conductor45004;
	insulation_relative_permitivitty 2.4;
	outer_diameter 1.502004;
	neutral_resistance 0.70224;
	neutral_diameter 0.162000;
	shield_gmr 0.000000;
};

object underground_line {
	phases ACB;
	from node5785657808;
	name 57809;
	longitude 0;
	to nodeSW1139-Bx157809;
	length 29.715;
	latitude 0;
	configuration 57809-LINECONFIG;
};

object switch {
	status CLOSED;
	phases ACB;
	from nodeSW1139-Bx157809;
	name SW1139-Bx1;
	longitude 0;
	to nodeSW1139-Ax1SW1139-Bx1;
	latitude 0;
};

object switch {
	status CLOSED;
	phases ACB;
	from nodeSW1139-Ax1SW1139-Bx1;
	name SW1139-Ax1;
	longitude 0;
	to node57864SW1139-Ax1;
	latitude 0;
};

object underground_line {
	phases ACB;
	from node57864SW1139-Ax1;
	name 57864;
	longitude 0;
	to node5787957864;
	length 520.593;
	latitude 0;
	configuration 57809-LINECONFIG;
};

object underground_line {
	phases ACB;
	from node5787957864;
	name 57879;
	longitude 0;
	to node5781757879;
	length 524.298;
	latitude 0;
	configuration 57809-LINECONFIG;
};

object underground_line {
	phases ACB;
	from node5781757879;
	name 57817;
	longitude 0;
	to node5787757817;
	length 499.641;
	latitude 0;
	configuration 57809-LINECONFIG;
};

object underground_line {
	phases ACB;
	from node5787757817;
	name 57877;
	longitude 0;
	to nodeSW1420-Bx157877;
	length 311.538;
	latitude 0;
	configuration 57809-LINECONFIG;
};

object switch {
	status CLOSED;
	phases ACB;
	from nodeSW1420-Bx157877;
	name SW1420-Bx1;
	longitude 0;
	to nodeSW1420-Ax1SW1420-Bx1;
	latitude 0;
};

object switch {
	status CLOSED;
	phases ACB;
	from nodeSW1420-Ax1SW1420-Bx1;
	name SW1420-Ax1;
	longitude 0;
	to node57818SW1420-Ax1;
	latitude 0;
};

object underground_line {
	phases ACB;
	from node57818SW1420-Ax1;
	name 57818;
	longitude 0;
	to node1843257818;
	length 21.6692;
	latitude 0;
	configuration 57809-LINECONFIG;
};

object overhead_line {
	phases ACB;
	from node1843257818;
	name 18432;
	to node5787818432;
	longitude 0;
	length 26.3767;
	latitude 0;
	configuration 20531-LINECONFIG;
};

object underground_line {
	phases A;
	from node5787818432;
	name 57878;
	longitude 0;
	to nodeF653757878;
	length 30.0841;
	latitude 0;
	configuration 58233-LINECONFIG;
};

object fuse {
	phases A;
	from nodeF653757878;
	name F6537;
	current_limit 9999.0 A;
	longitude 0;
	to node57866F6537;
	latitude 0;
};

object underground_line {
	phases A;
	from node57866F6537;
	name 57866;
	longitude 0;
	to nodeT6247418245957866;
	length 248.664;
	latitude 0;
	configuration 58233-LINECONFIG;
};

object underground_line {
	phases A;
	from nodeT6247418245957866;
	name 57865;
	to nodeT6247418149757865;
	longitude 0;
	length 120.109;
	latitude 0;
	configuration 58233-LINECONFIG;
};

object underground_line {
	phases A;
	from nodeT6247418149757865;
	name 57858;
	longitude 0;
	to nodeT6247418144357858;
	length 139.46;
	latitude 0;
	configuration 58233-LINECONFIG;
};

object underground_line {
	phases A;
	from nodeT6247418144357858;
	name 57852;
	longitude 0;
	to nodeT6247418038957852;
	length 140.033;
	latitude 0;
	configuration 58233-LINECONFIG;
};

object underground_line {
	phases A;
	from nodeT6247418038957852;
	name 57847;
	longitude 0;
	to nodeT6247418035657847;
	length 108.756;
	latitude 0;
	configuration 58233-LINECONFIG;
};

object overhead_line {
	phases ACB;
	from node5787818432;
	name 18374;
	longitude 0;
	to node1781118374;
	length 191.748;
	latitude 0;
	configuration 20531-LINECONFIG;
};

object overhead_line {
	phases ACB;
	from node1781118374;
	name 17811;
	longitude 0;
	to nodeT6247418169517811;
	length 80.5873;
	latitude 0;
	configuration 20531-LINECONFIG;
};

object overhead_line {
	phases ACB;
	from nodeT6247418169517811;
	name 17934;
	longitude 0;
	to node1821617934;
	length 240.081;
	latitude 0;
	configuration 20531-LINECONFIG;
};

object overhead_line {
	phases ACB;
	from node1821617934;
	name 18216;
	longitude 0;
	to node1821718216;
	length 317.835;
	latitude 0;
	configuration 20531-LINECONFIG;
};

object overhead_line {
	phases ACB;
	from node1821718216;
	name 18217;
	longitude 0;
	to node1792418217;
	length 201.027;
	latitude 0;
	configuration 20531-LINECONFIG;
};

object overhead_line {
	phases ACB;
	from node1792418217;
	name 17924;
	to node1830817924;
	longitude 0;
	length 201.443;
	latitude 0;
	configuration 20531-LINECONFIG;
};

object overhead_line {
	phases ACB;
	from node1830817924;
	name 18308;
	longitude 0;
	to node1832618308;
	length 224.687;
	latitude 0;
	configuration 20531-LINECONFIG;
};

object overhead_line {
	phases ACB;
	from node1832618308;
	name 18326;
	longitude 0;
	to node1844318326;
	length 216.095;
	latitude 0;
	configuration 20531-LINECONFIG;
};

object overhead_line {
	phases A;
	from node1844318326;
	name 18443;
	longitude 0;
	to node1788818443;
	length 474.794;
	latitude 0;
	configuration 20531-LINECONFIG;
};

object overhead_line {
	phases A;
	from node1788818443;
	name 17888;
	longitude 0;
	to nodeF742317888;
	length 25.0001;
	latitude 0;
	configuration 19519-LINECONFIG;
};

object fuse {
	phases A;
	from nodeF742317888;
	name F7423;
	current_limit 9999.0 A;
	longitude 0;
	to node18410F7423;
	latitude 0;
};

object overhead_line {
	phases A;
	from node18410F7423;
	name 18410;
	longitude 0;
	to nodeT6247418267818410;
	length 325.822;
	latitude 0;
	configuration 19519-LINECONFIG;
};

object overhead_line {
	phases ACB;
	from node1832618308;
	name 18325;
	longitude 0;
	to node1831818325;
	length 90.9393;
	latitude 0;
	configuration 20531-LINECONFIG;
};

object overhead_line {
	phases ACB;
	from node1831818325;
	name 18318;
	longitude 0;
	to nodeSW1236-B18318;
	length 24.9999;
	latitude 0;
	configuration 20531-LINECONFIG;
};

object line_configuration {
	name 17361-LINECONFIG;
	spacing 20531-LINESPACING;
	conductor_B 16781_conductor_C;
	conductor_A 16781_conductor_C;
	conductor_C 16781_conductor_C;
};

object overhead_line {
	phases ACB;
	from node1744316564;
	name 17361;
	longitude 0;
	to nodeT6246217249017361;
	length 191.256;
	latitude 0;
	configuration 17361-LINECONFIG;
};

object overhead_line {
	phases B;
	from nodeT6246217249017361;
	name 17230;
	longitude 0;
	to nodeT6246217237917230;
	length 40.0012;
	latitude 0;
	configuration 17361-LINECONFIG;
};

object overhead_line {
	phases ACB;
	from node1656468063;
	name 16552;
	longitude 0;
	to nodeSW1276-Ax116552;
	length 29.1022;
	latitude 0;
	configuration 16564-LINECONFIG;
};

object overhead_line {
	phases ACB;
	from node6806216557;
	name 17387;
	longitude 0;
	to node1738817387;
	length 32.2093;
	latitude 0;
	configuration 16564-LINECONFIG;
};

object overhead_line {
	phases ACB;
	from node1738817387;
	name 17388;
	longitude 0;
	to nodeSW1276-Bx117388;
	length 19.976;
	latitude 0;
	configuration 16564-LINECONFIG;
};

object overhead_line {
	phases ACB;
	from node6806216557;
	name 17210;
	longitude 0;
	to node6806417210;
	length 158.967;
	latitude 0;
	configuration 20531-LINECONFIG;
};

object overhead_line {
	phases ACB;
	from node6806417210;
	name 68064;
	to nodeR120268064;
	longitude 0;
	length 15.1854;
	latitude 0;
	configuration 20531-LINECONFIG;
};

object fuse {
	phases ACB;
	from nodeR120268064;
	name R1202;
	current_limit 9999.0 A;
	longitude 0;
	to node68065R1202;
	latitude 0;
};

object overhead_line {
	phases ACB;
	from node68065R1202;
	name 68065;
	longitude 0;
	to node7055868065;
	length 14.881;
	latitude 0;
	configuration 20531-LINECONFIG;
};

object overhead_line {
	phases ACB;
	from node7055868065;
	name 70558;
	longitude 0;
	to node7055970558;
	length 401.908;
	latitude 0;
	configuration 20531-LINECONFIG;
};

object overhead_line {
	phases ACB;
	from node7055970558;
	name 70559;
	longitude 0;
	to nodeT6246217033670559;
	length 30;
	latitude 0;
	configuration 20531-LINECONFIG;
};

object overhead_line {
	phases A;
	from nodeT6246217033670559;
	name 17127;
	longitude 0;
	to nodeF526917127;
	length 25.2353;
	latitude 0;
	configuration 18949-LINECONFIG;
};

object fuse {
	phases A;
	from nodeF526917127;
	name F5269;
	current_limit 9999.0 A;
	longitude 0;
	to node17134F5269;
	latitude 0;
};

object overhead_line {
	phases A;
	from node17134F5269;
	name 17134;
	to node1703817134;
	longitude 0;
	length 185.337;
	latitude 0;
	configuration 18949-LINECONFIG;
};

object overhead_line {
	phases A;
	from node1703817134;
	name 17038;
	longitude 0;
	to nodeT6246216924517038;
	length 210.084;
	latitude 0;
	configuration 18949-LINECONFIG;
};

object overhead_line {
	phases ACB;
	from nodeT6246217033670559;
	name 16489;
	longitude 0;
	to nodeT6246216944216489;
	length 212.564;
	latitude 0;
	configuration 20531-LINECONFIG;
};

object overhead_line {
	phases ACB;
	from nodeT6246216944216489;
	name 16792;
	longitude 0;
	to node1667616792;
	length 747.809;
	latitude 0;
	configuration 20531-LINECONFIG;
};

object overhead_line {
	phases ACB;
	from node1667616792;
	name 16676;
	to node1640116676;
	longitude 0;
	length 265.618;
	latitude 0;
	configuration 20531-LINECONFIG;
};

object overhead_line {
	phases ACB;
	from node1640116676;
	name 16401;
	longitude 0;
	to node1624616401;
	length 507.61;
	latitude 0;
	configuration 20531-LINECONFIG;
};

object overhead_line {
	phases ACB;
	from node1624616401;
	name 16246;
	longitude 0;
	to nodeT6246216294816246;
	length 269.729;
	latitude 0;
	configuration 20531-LINECONFIG;
};

object overhead_line {
	phases ACB;
	from nodeT6246216294816246;
	name 16149;
	longitude 0;
	to node1594716149;
	length 362.275;
	latitude 0;
	configuration 20531-LINECONFIG;
};

object overhead_line {
	phases ACB;
	from node1594716149;
	name 15947;
	longitude 0;
	to node1580915947;
	length 403.339;
	latitude 0;
	configuration 20531-LINECONFIG;
};

object overhead_line {
	phases ACB;
	from node1580915947;
	name 15809;
	to node1497315809;
	longitude 0;
	length 292.192;
	latitude 0;
	configuration 20531-LINECONFIG;
};

object overhead_line {
	phases ACB;
	from node1497315809;
	name 14973;
	longitude 0;
	to node1555814973;
	length 375.845;
	latitude 0;
	configuration 20531-LINECONFIG;
};

object overhead_line {
	phases ACB;
	from node1555814973;
	name 15558;
	longitude 0;
	to node1518515558;
	length 306.614;
	latitude 0;
	configuration 20531-LINECONFIG;
};

object overhead_line {
	phases ACB;
	from node1518515558;
	name 15185;
	longitude 0;
	to node1504015185;
	length 317.537;
	latitude 0;
	configuration 20531-LINECONFIG;
};

object overhead_line {
	phases ACB;
	from node1504015185;
	name 15040;
	longitude 0;
	to node6816115040;
	length 286.057;
	latitude 0;
	configuration 20531-LINECONFIG;
};

object overhead_line {
	phases ACB;
	from node6816115040;
	name 68161;
	longitude 0;
	to nodeF555268161;
	length 13.0603;
	latitude 0;
	configuration 17361-LINECONFIG;
};

object fuse {
	phases ACB;
	from nodeF555268161;
	name F5552;
	current_limit 9999.0 A;
	longitude 0;
	to node15042F5552;
	latitude 0;
};

object overhead_line {
	phases ACB;
	from node15042F5552;
	name 15042;
	longitude 0;
	to nodeT6246209113515042;
	length 106.95;
	latitude 0;
	configuration 17361-LINECONFIG;
};

object overhead_line {
	phases ACB;
	from nodeT6246209113515042;
	name 15048;
	longitude 0;
	to nodeSW1039-Bx115048;
	length 29.3356;
	latitude 0;
	configuration 17361-LINECONFIG;
};

object switch {
	status CLOSED;
	phases ACB;
	from nodeSW1039-Bx115048;
	name SW1039-Bx1;
	longitude 0;
	to nodeSW1039-Ax1SW1039-Bx1;
	latitude 0;
};

object switch {
	status CLOSED;
	phases ACB;
	from nodeSW1039-Ax1SW1039-Bx1;
	name SW1039-Ax1;
	longitude 0;
	to node15051SW1039-Ax1;
	latitude 0;
};

object overhead_line {
	phases ACB;
	from node15051SW1039-Ax1;
	name 15051;
	longitude 0;
	to node5773115051;
	length 15.0633;
	latitude 0;
	configuration 17361-LINECONFIG;
};

object underground_line {
	phases ACB;
	from node5773115051;
	name 57731;
	longitude 0;
	to nodeF559357731;
	length 28.9999;
	latitude 0;
	configuration 57825-LINECONFIG;
};

object fuse {
	phases ACB;
	from nodeF559357731;
	name F5593;
	current_limit 9999.0 A;
	longitude 0;
	to node57738F5593;
	latitude 0;
};

object overhead_line {
	phases ACB;
	from node6816115040;
	name 15305;
	longitude 0;
	to node1502815305;
	length 470.042;
	latitude 0;
	configuration 20531-LINECONFIG;
};

object overhead_line {
	phases ACB;
	from node1502815305;
	name 15028;
	longitude 0;
	to node1460115028;
	length 436.471;
	latitude 0;
	configuration 20531-LINECONFIG;
};

object overhead_line {
	phases ACB;
	from node1460115028;
	name 14601;
	longitude 0;
	to node1476314601;
	length 368.458;
	latitude 0;
	configuration 20531-LINECONFIG;
};

object overhead_line {
	phases ACB;
	from node1476314601;
	name 14763;
	longitude 0;
	to node1466514763;
	length 341.358;
	latitude 0;
	configuration 20531-LINECONFIG;
};

object overhead_line {
	phases ACB;
	from node1466514763;
	name 14665;
	longitude 0;
	to nodeSW6314665;
	length 359.974;
	latitude 0;
	configuration 20531-LINECONFIG;
};

object overhead_line {
	phases B;
	from nodeT6246216294816246;
	name 16237;
	longitude 0;
	to nodeF751416237;
	length 25;
	latitude 0;
	configuration 16194-LINECONFIG;
};

object fuse {
	phases B;
	from nodeF751416237;
	name F7514;
	current_limit 9999.0 A;
	longitude 0;
	to node16229F7514;
	latitude 0;
};

object overhead_line {
	phases B;
	from node16229F7514;
	name 16229;
	longitude 0;
	to node1620916229;
	length 121.877;
	latitude 0;
	configuration 16194-LINECONFIG;
};

object overhead_line {
	phases B;
	from node1620916229;
	name 16209;
	longitude 0;
	to node7247316209;
	length 197.367;
	latitude 0;
	configuration 16194-LINECONFIG;
};

object overhead_line {
	phases B;
	from node7247316209;
	name 72473;
	longitude 0;
	to node7247472473;
	length 255;
	latitude 0;
	configuration 16194-LINECONFIG;
};

object overhead_line {
	phases B;
	from node7247472473;
	name 72474;
	longitude 0;
	to node7247572474;
	length 255;
	latitude 0;
	configuration 16194-LINECONFIG;
};

object overhead_line {
	phases B;
	from node7247572474;
	name 72475;
	longitude 0;
	to node7247672475;
	length 360;
	latitude 0;
	configuration 16194-LINECONFIG;
};

object line_configuration {
	name 16194-LINECONFIG;
	spacing 16781-LINESPACING;
	conductor_B 16781_conductor_C;
};

object overhead_line {
	phases B;
	from node7247316209;
	name 16194;
	longitude 0;
	to nodeT6246210126716194;
	length 268.71;
	latitude 0;
	configuration 16194-LINECONFIG;
};

object overhead_line {
	phases B;
	from nodeT6246210126716194;
	name 16109;
	longitude 0;
	to nodeT6246210022416109;
	length 304.822;
	latitude 0;
	configuration 16194-LINECONFIG;
};

object overhead_line {
	phases B;
	from nodeT6246210126716194;
	name 15631;
	longitude 0;
	to nodeT6246210133815631;
	length 220.523;
	latitude 0;
	configuration 16194-LINECONFIG;
};

object overhead_line {
	phases B;
	from node1667616792;
	name 16286;
	to node5776016286;
	longitude 0;
	length 264.012;
	latitude 0;
	configuration 16194-LINECONFIG;
};

object underground_line {
	phases B;
	from node5776016286;
	name 57760;
	longitude 0;
	to nodeF751657760;
	length 25.0002;
	latitude 0;
	configuration 58119-LINECONFIG;
};

object fuse {
	phases B;
	from nodeF751657760;
	name F7516;
	current_limit 9999.0 A;
	longitude 0;
	to node57765F7516;
	latitude 0;
};

object underground_line {
	phases B;
	from node57765F7516;
	name 57765;
	longitude 0;
	to nodeT6246216645457765;
	length 110.041;
	latitude 0;
	configuration 58119-LINECONFIG;
};

object overhead_line {
	phases C;
	from nodeT6246216944216489;
	name 16490;
	longitude 0;
	to nodeF751716490;
	length 25.0001;
	latitude 0;
	configuration 16781-LINECONFIG;
};

object fuse {
	phases C;
	from nodeF751716490;
	name F7517;
	current_limit 9999.0 A;
	longitude 0;
	to node17035F7517;
	latitude 0;
};

object overhead_line {
	phases C;
	from node17035F7517;
	name 17035;
	to nodeT6246216946917035;
	longitude 0;
	length 131.009;
	latitude 0;
	configuration 16781-LINECONFIG;
};

object overhead_line {
	phases C;
	from nodeT6246216946917035;
	name 16309;
	longitude 0;
	to node1702316309;
	length 240.841;
	latitude 0;
	configuration 16781-LINECONFIG;
};

object overhead_line {
	phases C;
	from node1702316309;
	name 17023;
	longitude 0;
	to nodeT6246217074317023;
	length 269.281;
	latitude 0;
	configuration 16781-LINECONFIG;
};

object overhead_line {
	phases C;
	from nodeT6246217074317023;
	name 17147;
	to node5776117147;
	longitude 0;
	length 152.053;
	latitude 0;
	configuration 16781-LINECONFIG;
};

object underground_line {
	phases C;
	from node5776117147;
	name 57761;
	longitude 0;
	to nodeF751557761;
	length 24.9998;
	latitude 0;
	configuration 57821-LINECONFIG;
};

object fuse {
	phases C;
	from nodeF751557761;
	name F7515;
	current_limit 9999.0 A;
	longitude 0;
	to node57781F7515;
	latitude 0;
};

object underground_line {
	phases C;
	from node57781F7515;
	name 57781;
	longitude 0;
	to nodeT6246211006057781;
	length 373.741;
	latitude 0;
	configuration 57821-LINECONFIG;
};

object overhead_line {
	phases C;
	from node5776117147;
	name 16738;
	longitude 0;
	to nodeT6246216887016738;
	length 384.201;
	latitude 0;
	configuration 16781-LINECONFIG;
};

object capacitor {
	control MANUAL;
	phases ABCN;
	capacitor_A 48000.0;
	control_level BANK;
	name CAP134;
	parent node7055970558;
	capacitor_B 48000.0;
	phases_connected ABCN;
	longitude 0;
	switchC CLOSED;
	nominal_voltage 7200.0;
	capacitor_C 48000.0;
	latitude 0;
	switchB CLOSED;
	switchA CLOSED;
	pt_phase A;
};

object overhead_line {
	phases ACB;
	from node7055868065;
	name 17189;
	longitude 0;
	to nodeSW1375-Bx117189;
	length 24.2364;
	latitude 0;
	configuration 20531-LINECONFIG;
};

object overhead_line {
	phases ACB;
	from node6806417210;
	name 17205;
	longitude 0;
	to node1718817205;
	length 24.3991;
	latitude 0;
	configuration 20531-LINECONFIG;
};

object overhead_line {
	phases ACB;
	from node1718817205;
	name 17188;
	longitude 0;
	to nodeSW1375-Ax117188;
	length 19.975;
	latitude 0;
	configuration 20531-LINECONFIG;
};

object overhead_line {
	phases ACB;
	from node1655717535;
	name 17422;
	longitude 0;
	to nodeT6246217327217422;
	length 185.436;
	latitude 0;
	configuration 17361-LINECONFIG;
};

object overhead_line {
	phases ACB;
	from nodeT6246217327217422;
	name 17095;
	longitude 0;
	to nodeSW1421-Bx117095;
	length 26.7337;
	latitude 0;
	configuration 17361-LINECONFIG;
};

object switch {
	status CLOSED;
	phases ACB;
	from nodeSW1421-Bx117095;
	name SW1421-Bx1;
	longitude 0;
	to nodeSW1421-Ax1SW1421-Bx1;
	latitude 0;
};

object switch {
	status CLOSED;
	phases ACB;
	from nodeSW1421-Ax1SW1421-Bx1;
	name SW1421-Ax1;
	longitude 0;
	to node17091SW1421-Ax1;
	latitude 0;
};

object overhead_line {
	phases ACB;
	from node17091SW1421-Ax1;
	name 17091;
	longitude 0;
	to node5776917091;
	length 10;
	latitude 0;
	configuration 17361-LINECONFIG;
};

object underground_line {
	phases ACB;
	from node5776917091;
	name 57769;
	to nodeF564057769;
	longitude 0;
	length 29.1536;
	latitude 0;
	configuration 57825-LINECONFIG;
};

object fuse {
	phases ACB;
	from nodeF564057769;
	name F5640;
	current_limit 9999.0 A;
	longitude 0;
	to node57768F5640;
	latitude 0;
};

object overhead_line {
	phases C;
	from nodeT6246217327217422;
	name 17421;
	longitude 0;
	to node6778217421;
	length 23.1075;
	latitude 0;
	configuration 16781-LINECONFIG;
};

object overhead_line {
	phases C;
	from node6778217421;
	name 67782;
	longitude 0;
	to nodeR120367782;
	length 20;
	latitude 0;
	configuration 16781-LINECONFIG;
};

object fuse {
	phases C;
	from nodeR120367782;
	name R1203;
	current_limit 9999.0 A;
	longitude 0;
	to node67783R1203;
	latitude 0;
};

object overhead_line {
	phases C;
	from node67783R1203;
	name 67783;
	longitude 0;
	to node1710567783;
	length 10;
	latitude 0;
	configuration 16781-LINECONFIG;
};

object overhead_line {
	phases C;
	from node1710567783;
	name 17105;
	longitude 0;
	to node1736617105;
	length 86.7997;
	latitude 0;
	configuration 16781-LINECONFIG;
};

object overhead_line {
	phases C;
	from node1736617105;
	name 17366;
	to node1723117366;
	longitude 0;
	length 145.002;
	latitude 0;
...